10
http://cccbdb.nist.gov/ Geometry for C3H6O (Propylene oxide), CISD/6-31G*
O   0.8171  -0.7825  -0.2447
C  -1.5018   0.1019  -0.1473
H  -1.3989   0.3323  -1.2066
H  -2.0652  -0.8262  -0.0524
H  -2.0715   0.8983   0.3329
C  -0.1488  -0.0393   0.4879
H  -0.1505  -0.2633   1.5506
C   1.0387   0.6105  -0.0580
H   0.9518   1.2157  -0.9531
H   1.8684   0.8649   0.5908
